.include AND3.sub
.include AND.sub
.subckt AND4 A B C D Out vdd gnd
    X1 A B C E vdd gnd AND3
    X2 E D Out vdd gnd AND
.ends AND4