.include OR.sub

.subckt OR3 A B C Out vdd gnd
    X1 A B D vdd gnd OR
    X2 C D Out vdd gnd OR
.ends OR3